psse/psse-converter/src/test/resources/two_terminal_dc_vsc_with_zero_resistance.xiidm
<?xml version="1.0" encoding="UTF-8"?>
<iidm:network xmlns:iidm="http://www.powsybl.org/schema/iidm/1_18" xmlns:slt="http://www.powsybl.org/schema/iidm/ext/slack_terminal/1_5" id="two_terminal_dc_vsc_with_zero_resistance" caseDate="2016-01-01T10:00:00.000+02:00" forecastDistance="0" sourceFormat="PSS/E" minimumValidationLevel="STEADY_STATE_HYPOTHESIS">
    <iidm:substation id="S1">
        <iidm:voltageLevel id="VL1" nominalV="138.0" topologyKind="BUS_BREAKER">
            <iidm:busBreakerTopology>
                <iidm:bus id="B1" name="Bus 1       " v="146.28" angle="0.0"/>
            </iidm:busBreakerTopology>
            <iidm:generator id="B1-G1 " energySource="OTHER" minP="-10000.0" maxP="10000.0" targetP="232.392" localTargetV="146.28" localTargetQ="-16.549" bus="B1" connectableBus="B1">
                <iidm:minMaxReactiveLimits minQ="0.0" maxQ="0.0"/>
            </iidm:generator>
            <iidm:vscConverterStation id="VscConverter-1-VSC         " lossFactor="9.9999E-4" localTargetQ="0.0" bus="B1" connectableBus="B1" localTargetV="138.0">
                <iidm:minMaxReactiveLimits minQ="-250.0" maxQ="300.0"/>
                <iidm:voltageRegulation mode="VOLTAGE" regulating="true"/>
            </iidm:vscConverterStation>
            <iidm:lccConverterStation id="LccConverter-1-TWO-TERM-DC  " name="TWO-TERM-DC  " lossFactor="0.0" powerFactor="0.75" bus="B1" connectableBus="B1"/>
        </iidm:voltageLevel>
    </iidm:substation>
    <iidm:substation id="S2">
        <iidm:voltageLevel id="VL2" nominalV="138.0" topologyKind="BUS_BREAKER">
            <iidm:busBreakerTopology>
                <iidm:bus id="B2" name="Bus 2       " v="144.20999999999998" angle="-4.9826"/>
            </iidm:busBreakerTopology>
            <iidm:load id="B2-L1 " loadType="UNDEFINED" p0="21.7" q0="12.7" bus="B2" connectableBus="B2"/>
            <iidm:vscConverterStation id="VscConverter-2-VSC         " lossFactor="0.002" localTargetV="138.0" localTargetQ="0.11180423740823946" bus="B2" connectableBus="B2">
                <iidm:minMaxReactiveLimits minQ="0.0" maxQ="0.0"/>
            </iidm:vscConverterStation>
            <iidm:lccConverterStation id="LccConverter-2-TWO-TERM-DC  " name="TWO-TERM-DC  " lossFactor="0.0" powerFactor="0.75" bus="B2" connectableBus="B2"/>
        </iidm:voltageLevel>
    </iidm:substation>
    <iidm:hvdcLine id="TwoTerminalDc-TWO-TERM-DC  " name="TWO-TERM-DC  " r="0.0" nominalV="400.0" convertersMode="SIDE_1_RECTIFIER_SIDE_2_INVERTER" activePowerSetpoint="35.0" maxP="42.0" converterStation1="LccConverter-1-TWO-TERM-DC  " converterStation2="LccConverter-2-TWO-TERM-DC  "/>
    <iidm:hvdcLine id="VscDcTransmissionLine-VSC         " name="VSC         " r="0.0" nominalV="138.0" convertersMode="SIDE_1_RECTIFIER_SIDE_2_INVERTER" activePowerSetpoint="25.0" maxP="30.0" converterStation1="VscConverter-1-VSC         " converterStation2="VscConverter-2-VSC         "/>
    <iidm:extension id="VL1">
        <slt:slackTerminal id="B1-G1 "/>
    </iidm:extension>
</iidm:network>
